14
DFL
C    -0.047372   0.000000  -0.893049
C     0.056089   0.000000   0.520029
C     1.314737   0.000000   1.091825
C     2.503430   0.000000   0.348142
C     2.372232   0.000000  -1.028146
C     1.123297   0.000000  -1.658046
F     1.401917   0.000000   2.440230
H     3.474644   0.000000   0.840696
F     3.478025   0.000000  -1.793940
H     1.049425   0.000000  -2.745305
N    -1.254554   0.000000  -1.620605
S    -2.669489   0.000000  -0.905947
N    -2.741907   0.000000   0.675390
S    -1.355686   0.000000   1.682195